Circuit: * C:\Users\beia\Documents\GitHub\Bird_Detector\LTSpice_simulations\power_switching.asc

Direct Newton iteration for .op point succeeded.

Date: Mon Oct 31 10:21:56 2022
Total elapsed time: 0.231 seconds.

tnom = 27
temp = 27
method = modified trap
totiter = 2195
traniter = 2174
tranpoints = 1063
accept = 1062
rejected = 1
matrix size = 11
fillins = 0
solver = Normal
Matrix Compiler1: 610 bytes object code size  0.6/0.1/[0.1]
Matrix Compiler2: off  [0.1]/0.2/0.1

