Circuit: * C:\Users\beia\Documents\GitHub\Bird_Detector\LTSpice_simulations\power_switching.asc

Error on line 33 : v3 n005 0 if(v(batt_out)< 3,v(batt_out),0)
	 Unknown parameter "if"
V3: Missing value, assumed 0V @ DC
Direct Newton iteration for .op point succeeded.

Date: Mon Oct 31 12:39:57 2022
Total elapsed time: 0.216 seconds.

tnom = 27
temp = 27
method = modified trap
totiter = 2518
traniter = 2509
tranpoints = 1094
accept = 1079
rejected = 15
matrix size = 23
fillins = 4
solver = Normal
Matrix Compiler1: 1.74 KB object code size  0.4/0.2/[0.1]
Matrix Compiler2: 2.10 KB object code size  0.2/0.2/[0.2]

