Circuit: * D:\github-stuff\Bird_Detector\LTSpice_simulations\power_switching.asc

Warning: Multiple definitions of model "testn" Type: Mos1
Direct Newton iteration failed to find .op point.  (Use ".option noopiter" to skip.)
Starting Gmin stepping
Increasing initial diagonal Gmin to 100
Increasing initial diagonal Gmin to 1000
Increasing initial diagonal Gmin to 10000
Increasing initial diagonal Gmin to 100000
Increasing initial diagonal Gmin to 1e+006
Initial Gmin=1e+006 failed
Gmin stepping failed

Starting source stepping with srcstepmethod=0
Source Step = 3.0303%
vernier = 0.25
Source Step = 0.0177557%
Starting source stepping with srcstepmethod=1
Source Step = 3.0303%
vernier = 0.25
Source stepping failed

Pseudo Transient failed in finding the operating point at 5.169 µs.
Trouble finding operating point....skipping operating point for Transient analysis.
Changing Tseed to 1e-007
Changing Tseed to 1e-009
Changing Tseed to 1e-006
Changing Tseed to 1e-010
Changing Tseed to 1e-005
Changing Tseed to 1e-011
Changing Tseed to 0.0001
Changing Tseed to 1e-012
Changing Tseed to 0.001
Changing Tseed to 1e-013
Changing Tseed to 0.01
Changing Tseed to 1e-014
Fatal Error: Analysis:  Time step too small; initial timepoint: trouble with pmos-instance m1

