Circuit: * C:\Users\beia\Documents\GitHub\Bird_Detector\LTSpice_simulations\test_pmos.asc

Warning: Multiple definitions of model "testn" Type: Mos1
WARNING: Node NC_02 is floating.
WARNING: Node NC_03 is floating.
WARNING: Node NC_04 is floating.

WARNING: Less than two connections to node BMS_SIGNAL.  This node is used by B1.
WARNING: Less than two connections to node NC_01.  This node is used by M1.
WARNING: Less than two connections to node NC_03.  This node is used by M1.
Direct Newton iteration for .op point succeeded.

Date: Fri Nov 04 12:28:54 2022
Total elapsed time: 0.149 seconds.

tnom = 27
temp = 27
method = modified trap
totiter = 2259
traniter = 2245
tranpoints = 1081
accept = 1075
rejected = 6
matrix size = 14
fillins = 0
solver = Normal
Matrix Compiler1: 814 bytes object code size  0.2/0.1/[0.1]
Matrix Compiler2: off  [0.1]/0.1/0.1

